Version 4
SHEET 1 1076 680
WIRE 496 -80 448 -80
WIRE 608 -80 560 -80
WIRE 448 0 448 -80
WIRE 608 0 608 -80
WIRE 208 96 144 96
WIRE 336 96 208 96
WIRE 448 96 448 0
WIRE 448 96 400 96
WIRE 544 96 448 96
WIRE 608 112 608 0
WIRE 656 112 608 112
WIRE 672 112 656 112
WIRE 144 128 144 96
WIRE 544 128 448 128
WIRE 528 144 528 0
WIRE 576 208 576 144
FLAG 144 208 0
FLAG 448 208 0
FLAG 528 208 0
FLAG 576 208 0
FLAG 576 80 Vcc
IOPIN 576 80 In
FLAG -128 0 0
FLAG -128 -80 Vcc
IOPIN -128 -80 Out
FLAG 656 112 Vc
FLAG 208 96 Ve
SYMBOL voltage 144 112 R0
WINDOW 3 -437 -7 Left 2
WINDOW 123 24 44 Left 2
WINDOW 39 0 0 Left 2
SYMATTR Value PULSE(0 5 0 1n 1n 65u 110u 15)
SYMATTR Value2 AC 5
SYMATTR InstName V1
SYMBOL cap 400 80 R90
WINDOW 0 0 32 VBottom 2
WINDOW 3 32 32 VTop 2
SYMATTR InstName C1
SYMATTR Value 1µ
SYMBOL res 544 -16 R90
WINDOW 0 0 56 VBottom 2
WINDOW 3 32 56 VTop 2
SYMATTR InstName R2
SYMATTR Value 33k
SYMBOL res 624 -16 R90
WINDOW 0 0 56 VBottom 2
WINDOW 3 32 56 VTop 2
SYMATTR InstName R3
SYMATTR Value 33k
SYMBOL cap 560 -96 R90
WINDOW 0 0 32 VBottom 2
WINDOW 3 32 32 VTop 2
SYMATTR InstName CF
SYMATTR Value 1n
SYMBOL cap 512 144 R0
SYMATTR InstName Cq
SYMATTR Value 1µ
SYMBOL Opamps\\UniversalOpamp2 576 112 R0
SYMATTR InstName U1
SYMBOL voltage -128 -96 R0
WINDOW 123 0 0 Left 2
WINDOW 39 0 0 Left 2
SYMATTR InstName V2
SYMATTR Value 5
SYMBOL res 432 112 R0
SYMATTR InstName R4
SYMATTR Value 1k
TEXT -200 232 Left 2 ;.tran 5m
TEXT -200 256 Left 2 !.ac dec 100 0.1m 1g
