Version 4
SHEET 1 880 680
WIRE 128 144 48 144
WIRE 176 144 128 144
WIRE 336 144 240 144
WIRE 448 144 336 144
WIRE 656 144 448 144
WIRE 688 144 656 144
WIRE 48 160 48 144
WIRE 336 160 336 144
WIRE 448 160 448 144
WIRE 48 272 48 240
WIRE 336 272 336 224
WIRE 448 272 448 240
FLAG 448 272 0
FLAG 48 272 0
FLAG 336 272 0
FLAG 128 144 Ve
FLAG 656 144 Vs
SYMBOL voltage 48 144 R0
WINDOW 3 -180 171 Left 2
WINDOW 123 0 0 Left 2
WINDOW 39 0 0 Left 2
SYMATTR InstName V1
SYMATTR Value SINE(0 5 8.5k 0 0 0 5)
SYMBOL diode 176 160 R270
WINDOW 0 32 32 VTop 2
WINDOW 3 0 32 VBottom 2
SYMATTR InstName D1
SYMBOL cap 320 160 R0
SYMATTR InstName C1
SYMATTR Value 10n
SYMBOL res 432 144 R0
SYMATTR InstName R1
SYMATTR Value 70k
TEXT -134 336 Left 2 !.tran 3m
